[Format]      =  4.0
[Frequency]   =  400000
[Precision]   =  1e-008
[MinAngle]    =  30
[DoSmartMesh] =  1
[Depth]       =  1
[LengthUnits] =  millimeters
[ProblemType] =  axisymmetric
[Coordinates] =  cartesian
[ACSolver]    =  0
[PrevType]    =  0
[PrevSoln]    =  ""
[Comment]     =  "Add comments here."
[PointProps]   = 0
[BdryProps]   = 1
  <BeginBdry>
    <BdryName> = "A=0"
    <BdryType> = 0
    <A_0> = 0
    <A_1> = 0
    <A_2> = 0
    <Phi> = 0
    <c0> = 0
    <c0i> = 0
    <c1> = 0
    <c1i> = 0
    <Mu_ssd> = 0
    <Sigma_ssd> = 0
    <innerangle> = 0
    <outerangle> = 0
  <EndBdry>
[BlockProps]  = 11
  <BeginBlock>
    <BlockName> = "Air"
    <Mu_x> = 1
    <Mu_y> = 1
    <H_c> = 0
    <H_cAngle> = 0
    <J_re> = 0
    <J_im> = 0
    <Sigma> = 0
    <d_lam> = 0
    <Phi_h> = 0
    <Phi_hx> = 0
    <Phi_hy> = 0
    <LamType> = 0
    <LamFill> = 1
    <NStrands> = 0
    <WireD> = 0
    <BHPoints> = 0
  <EndBlock>
  <BeginBlock>
    <BlockName> = "Copper"
    <Mu_x> = 1
    <Mu_y> = 1
    <H_c> = 0
    <H_cAngle> = 0
    <J_re> = 0
    <J_im> = 0
    <Sigma> = 58
    <d_lam> = 0
    <Phi_h> = 0
    <Phi_hx> = 0
    <Phi_hy> = 0
    <LamType> = 0
    <LamFill> = 1
    <NStrands> = 0
    <WireD> = 0
    <BHPoints> = 0
  <EndBlock>
  <BeginBlock>
    <BlockName> = "Al"
    <Mu_x> = 1
    <Mu_y> = 1
    <H_c> = 0
    <H_cAngle> = 0
    <J_re> = 0
    <J_im> = 0
    <Sigma> = 34.799999999999997
    <d_lam> = 0
    <Phi_h> = 0
    <Phi_hx> = 0
    <Phi_hy> = 0
    <LamType> = 0
    <LamFill> = 1
    <NStrands> = 0
    <WireD> = 0
    <BHPoints> = 0
  <EndBlock>
  <BeginBlock>
    <BlockName> = "Ferrite"
    <Mu_x> = 220
    <Mu_y> = 220
    <H_c> = 0
    <H_cAngle> = 0
    <J_re> = 0
    <J_im> = 0
    <Sigma> = 0
    <d_lam> = 0
    <Phi_h> = 0
    <Phi_hx> = 0
    <Phi_hy> = 0
    <LamType> = 0
    <LamFill> = 1
    <NStrands> = 0
    <WireD> = 0
    <BHPoints> = 0
  <EndBlock>
  <BeginBlock>
    <BlockName> = "u1"
    <Mu_x> = 2.4089242666740582
    <Mu_y> = 2.4089242666740582
    <H_c> = 0
    <H_cAngle> = 0
    <J_re> = 0
    <J_im> = 0
    <Sigma> = 0
    <d_lam> = 0
    <Phi_h> = 0
    <Phi_hx> = 0
    <Phi_hy> = 0
    <LamType> = 0
    <LamFill> = 1
    <NStrands> = 0
    <WireD> = 0
    <BHPoints> = 0
  <EndBlock>
  <BeginBlock>
    <BlockName> = "u2"
    <Mu_x> = 0.14929929105743517
    <Mu_y> = 0.14929929105743517
    <H_c> = 0
    <H_cAngle> = 0
    <J_re> = 0
    <J_im> = 0
    <Sigma> = 0
    <d_lam> = 0
    <Phi_h> = 0
    <Phi_hx> = 0
    <Phi_hy> = 0
    <LamType> = 0
    <LamFill> = 1
    <NStrands> = 0
    <WireD> = 0
    <BHPoints> = 0
  <EndBlock>
  <BeginBlock>
    <BlockName> = "u3"
    <Mu_x> = 13.817592213008757
    <Mu_y> = 13.817592213008757
    <H_c> = 0
    <H_cAngle> = 0
    <J_re> = 0
    <J_im> = 0
    <Sigma> = 0
    <d_lam> = 0
    <Phi_h> = 0
    <Phi_hx> = 0
    <Phi_hy> = 0
    <LamType> = 0
    <LamFill> = 1
    <NStrands> = 0
    <WireD> = 0
    <BHPoints> = 0
  <EndBlock>
  <BeginBlock>
    <BlockName> = "u4"
    <Mu_x> = 0.058217224585269539
    <Mu_y> = 0.058217224585269539
    <H_c> = 0
    <H_cAngle> = 0
    <J_re> = 0
    <J_im> = 0
    <Sigma> = 0
    <d_lam> = 0
    <Phi_h> = 0
    <Phi_hx> = 0
    <Phi_hy> = 0
    <LamType> = 0
    <LamFill> = 1
    <NStrands> = 0
    <WireD> = 0
    <BHPoints> = 0
  <EndBlock>
  <BeginBlock>
    <BlockName> = "u5"
    <Mu_x> = 45.655954531895645
    <Mu_y> = 45.655954531895645
    <H_c> = 0
    <H_cAngle> = 0
    <J_re> = 0
    <J_im> = 0
    <Sigma> = 0
    <d_lam> = 0
    <Phi_h> = 0
    <Phi_hx> = 0
    <Phi_hy> = 0
    <LamType> = 0
    <LamFill> = 1
    <NStrands> = 0
    <WireD> = 0
    <BHPoints> = 0
  <EndBlock>
  <BeginBlock>
    <BlockName> = "u6"
    <Mu_x> = 0.033867295231772787
    <Mu_y> = 0.033867295231772787
    <H_c> = 0
    <H_cAngle> = 0
    <J_re> = 0
    <J_im> = 0
    <Sigma> = 0
    <d_lam> = 0
    <Phi_h> = 0
    <Phi_hx> = 0
    <Phi_hy> = 0
    <LamType> = 0
    <LamFill> = 1
    <NStrands> = 0
    <WireD> = 0
    <BHPoints> = 0
  <EndBlock>
  <BeginBlock>
    <BlockName> = "u7"
    <Mu_x> = 429.04642800993452
    <Mu_y> = 429.04642800993452
    <H_c> = 0
    <H_cAngle> = 0
    <J_re> = 0
    <J_im> = 0
    <Sigma> = 0
    <d_lam> = 0
    <Phi_h> = 0
    <Phi_hx> = 0
    <Phi_hy> = 0
    <LamType> = 0
    <LamFill> = 1
    <NStrands> = 0
    <WireD> = 0
    <BHPoints> = 0
  <EndBlock>
[CircuitProps]  = 2
  <BeginCircuit>
    <CircuitName> = "ipri"
    <TotalAmps_re> = 1
    <TotalAmps_im> = 0
    <CircuitType> = 1
  <EndCircuit>
  <BeginCircuit>
    <CircuitName> = "isec"
    <TotalAmps_re> = 0
    <TotalAmps_im> = 0
    <CircuitType> = 1
  <EndCircuit>
[NumPoints] = 1199
0	0	0	0
60	0	0	0
60	0.20000000000000001	0	0
0	0.20000000000000001	0	0
71.849999999999994	50	0	0
73.150000000000006	50	0	0
71.849999999999994	56.5	0	0
73.150000000000006	56.5	0	0
71.849999999999994	63	0	0
73.150000000000006	63	0	0
71.849999999999994	69.5	0	0
73.150000000000006	69.5	0	0
71.849999999999994	76	0	0
73.150000000000006	76	0	0
71.849999999999994	82.5	0	0
73.150000000000006	82.5	0	0
71.849999999999994	89	0	0
73.150000000000006	89	0	0
71.849999999999994	95.5	0	0
73.150000000000006	95.5	0	0
71.849999999999994	102	0	0
73.150000000000006	102	0	0
71.849999999999994	108.5	0	0
73.150000000000006	108.5	0	0
71.849999999999994	115	0	0
73.150000000000006	115	0	0
71.849999999999994	121.5	0	0
73.150000000000006	121.5	0	0
71.849999999999994	128	0	0
73.150000000000006	128	0	0
71.849999999999994	134.5	0	0
73.150000000000006	134.5	0	0
71.849999999999994	141	0	0
73.150000000000006	141	0	0
71.849999999999994	147.5	0	0
73.150000000000006	147.5	0	0
39.219499999999996	50	0	0
39.580500000000001	50	0	0
39.219499999999996	50.401000000000003	0	0
39.580500000000001	50.401000000000003	0	0
39.219499999999996	50.802	0	0
39.580500000000001	50.802	0	0
39.219499999999996	51.203000000000003	0	0
39.580500000000001	51.203000000000003	0	0
39.219499999999996	51.603999999999999	0	0
39.580500000000001	51.603999999999999	0	0
39.219499999999996	52.005000000000003	0	0
39.580500000000001	52.005000000000003	0	0
39.219499999999996	52.405999999999999	0	0
39.580500000000001	52.405999999999999	0	0
39.219499999999996	52.807000000000002	0	0
39.580500000000001	52.807000000000002	0	0
39.219499999999996	53.207999999999998	0	0
39.580500000000001	53.207999999999998	0	0
39.219499999999996	53.609000000000002	0	0
39.580500000000001	53.609000000000002	0	0
39.219499999999996	54.009999999999998	0	0
39.580500000000001	54.009999999999998	0	0
39.219499999999996	54.411000000000001	0	0
39.580500000000001	54.411000000000001	0	0
39.219499999999996	54.811999999999998	0	0
39.580500000000001	54.811999999999998	0	0
39.219499999999996	55.213000000000001	0	0
39.580500000000001	55.213000000000001	0	0
39.219499999999996	55.614000000000004	0	0
39.580500000000001	55.614000000000004	0	0
39.219499999999996	56.015000000000001	0	0
39.580500000000001	56.015000000000001	0	0
39.219499999999996	56.415999999999997	0	0
39.580500000000001	56.415999999999997	0	0
39.219499999999996	56.817	0	0
39.580500000000001	56.817	0	0
39.219499999999996	57.218000000000004	0	0
39.580500000000001	57.218000000000004	0	0
39.219499999999996	57.619	0	0
39.580500000000001	57.619	0	0
39.219499999999996	58.019999999999996	0	0
39.580500000000001	58.019999999999996	0	0
39.219499999999996	58.420999999999999	0	0
39.580500000000001	58.420999999999999	0	0
39.219499999999996	58.822000000000003	0	0
39.580500000000001	58.822000000000003	0	0
39.219499999999996	59.222999999999999	0	0
39.580500000000001	59.222999999999999	0	0
39.219499999999996	59.624000000000002	0	0
39.580500000000001	59.624000000000002	0	0
39.219499999999996	60.024999999999999	0	0
39.580500000000001	60.024999999999999	0	0
39.219499999999996	60.426000000000002	0	0
39.580500000000001	60.426000000000002	0	0
39.219499999999996	60.826999999999998	0	0
39.580500000000001	60.826999999999998	0	0
39.219499999999996	61.228000000000002	0	0
39.580500000000001	61.228000000000002	0	0
39.219499999999996	61.629000000000005	0	0
39.580500000000001	61.629000000000005	0	0
39.219499999999996	62.030000000000001	0	0
39.580500000000001	62.030000000000001	0	0
39.219499999999996	62.430999999999997	0	0
39.580500000000001	62.430999999999997	0	0
39.219499999999996	62.832000000000001	0	0
39.580500000000001	62.832000000000001	0	0
39.219499999999996	63.233000000000004	0	0
39.580500000000001	63.233000000000004	0	0
39.219499999999996	63.634	0	0
39.580500000000001	63.634	0	0
39.219499999999996	64.034999999999997	0	0
39.580500000000001	64.034999999999997	0	0
39.219499999999996	64.436000000000007	0	0
39.580500000000001	64.436000000000007	0	0
39.219499999999996	64.837000000000003	0	0
39.580500000000001	64.837000000000003	0	0
39.219499999999996	65.238	0	0
39.580500000000001	65.238	0	0
39.219499999999996	65.638999999999996	0	0
39.580500000000001	65.638999999999996	0	0
39.219499999999996	66.039999999999992	0	0
39.580500000000001	66.039999999999992	0	0
39.219499999999996	66.441000000000003	0	0
39.580500000000001	66.441000000000003	0	0
39.219499999999996	66.841999999999999	0	0
39.580500000000001	66.841999999999999	0	0
39.219499999999996	67.242999999999995	0	0
39.580500000000001	67.242999999999995	0	0
39.219499999999996	67.644000000000005	0	0
39.580500000000001	67.644000000000005	0	0
39.219499999999996	68.045000000000002	0	0
39.580500000000001	68.045000000000002	0	0
39.219499999999996	68.445999999999998	0	0
39.580500000000001	68.445999999999998	0	0
39.219499999999996	68.847000000000008	0	0
39.580500000000001	68.847000000000008	0	0
39.219499999999996	69.248000000000005	0	0
39.580500000000001	69.248000000000005	0	0
39.219499999999996	69.649000000000001	0	0
39.580500000000001	69.649000000000001	0	0
39.219499999999996	70.049999999999997	0	0
39.580500000000001	70.049999999999997	0	0
39.219499999999996	70.450999999999993	0	0
39.580500000000001	70.450999999999993	0	0
39.219499999999996	70.852000000000004	0	0
39.580500000000001	70.852000000000004	0	0
39.219499999999996	71.253	0	0
39.580500000000001	71.253	0	0
39.219499999999996	71.653999999999996	0	0
39.580500000000001	71.653999999999996	0	0
39.219499999999996	72.055000000000007	0	0
39.580500000000001	72.055000000000007	0	0
39.219499999999996	72.456000000000003	0	0
39.580500000000001	72.456000000000003	0	0
39.219499999999996	72.856999999999999	0	0
39.580500000000001	72.856999999999999	0	0
39.219499999999996	73.25800000000001	0	0
39.580500000000001	73.25800000000001	0	0
39.219499999999996	73.659000000000006	0	0
39.580500000000001	73.659000000000006	0	0
39.219499999999996	74.060000000000002	0	0
39.580500000000001	74.060000000000002	0	0
39.219499999999996	74.460999999999999	0	0
39.580500000000001	74.460999999999999	0	0
39.219499999999996	74.861999999999995	0	0
39.580500000000001	74.861999999999995	0	0
39.219499999999996	75.263000000000005	0	0
39.580500000000001	75.263000000000005	0	0
39.219499999999996	75.664000000000001	0	0
39.580500000000001	75.664000000000001	0	0
39.219499999999996	76.064999999999998	0	0
39.580500000000001	76.064999999999998	0	0
39.219499999999996	76.466000000000008	0	0
39.580500000000001	76.466000000000008	0	0
39.219499999999996	76.867000000000004	0	0
39.580500000000001	76.867000000000004	0	0
39.219499999999996	77.268000000000001	0	0
39.580500000000001	77.268000000000001	0	0
39.219499999999996	77.668999999999997	0	0
39.580500000000001	77.668999999999997	0	0
39.219499999999996	78.069999999999993	0	0
39.580500000000001	78.069999999999993	0	0
39.219499999999996	78.471000000000004	0	0
39.580500000000001	78.471000000000004	0	0
39.219499999999996	78.872	0	0
39.580500000000001	78.872	0	0
39.219499999999996	79.272999999999996	0	0
39.580500000000001	79.272999999999996	0	0
39.219499999999996	79.674000000000007	0	0
39.580500000000001	79.674000000000007	0	0
39.219499999999996	80.075000000000003	0	0
39.580500000000001	80.075000000000003	0	0
39.219499999999996	80.475999999999999	0	0
39.580500000000001	80.475999999999999	0	0
39.219499999999996	80.87700000000001	0	0
39.580500000000001	80.87700000000001	0	0
39.219499999999996	81.278000000000006	0	0
39.580500000000001	81.278000000000006	0	0
39.219499999999996	81.679000000000002	0	0
39.580500000000001	81.679000000000002	0	0
39.219499999999996	82.079999999999998	0	0
39.580500000000001	82.079999999999998	0	0
39.219499999999996	82.480999999999995	0	0
39.580500000000001	82.480999999999995	0	0
39.219499999999996	82.882000000000005	0	0
39.580500000000001	82.882000000000005	0	0
39.219499999999996	83.283000000000001	0	0
39.580500000000001	83.283000000000001	0	0
39.219499999999996	83.683999999999997	0	0
39.580500000000001	83.683999999999997	0	0
39.219499999999996	84.085000000000008	0	0
39.580500000000001	84.085000000000008	0	0
39.219499999999996	84.486000000000004	0	0
39.580500000000001	84.486000000000004	0	0
39.219499999999996	84.887	0	0
39.580500000000001	84.887	0	0
39.219499999999996	85.288000000000011	0	0
39.580500000000001	85.288000000000011	0	0
39.219499999999996	85.688999999999993	0	0
39.580500000000001	85.688999999999993	0	0
39.219499999999996	86.090000000000003	0	0
39.580500000000001	86.090000000000003	0	0
39.219499999999996	86.491	0	0
39.580500000000001	86.491	0	0
39.219499999999996	86.891999999999996	0	0
39.580500000000001	86.891999999999996	0	0
39.219499999999996	87.293000000000006	0	0
39.580500000000001	87.293000000000006	0	0
39.219499999999996	87.694000000000003	0	0
39.580500000000001	87.694000000000003	0	0
39.219499999999996	88.094999999999999	0	0
39.580500000000001	88.094999999999999	0	0
39.219499999999996	88.496000000000009	0	0
39.580500000000001	88.496000000000009	0	0
39.219499999999996	88.897000000000006	0	0
39.580500000000001	88.897000000000006	0	0
39.219499999999996	89.298000000000002	0	0
39.580500000000001	89.298000000000002	0	0
39.219499999999996	89.699000000000012	0	0
39.580500000000001	89.699000000000012	0	0
39.219499999999996	90.099999999999994	0	0
39.580500000000001	90.099999999999994	0	0
39.219499999999996	90.501000000000005	0	0
39.580500000000001	90.501000000000005	0	0
39.219499999999996	90.902000000000001	0	0
39.580500000000001	90.902000000000001	0	0
39.219499999999996	91.302999999999997	0	0
39.580500000000001	91.302999999999997	0	0
39.219499999999996	91.704000000000008	0	0
39.580500000000001	91.704000000000008	0	0
39.219499999999996	92.105000000000004	0	0
39.580500000000001	92.105000000000004	0	0
39.219499999999996	92.506	0	0
39.580500000000001	92.506	0	0
39.219499999999996	92.907000000000011	0	0
39.580500000000001	92.907000000000011	0	0
39.219499999999996	93.307999999999993	0	0
39.580500000000001	93.307999999999993	0	0
39.219499999999996	93.709000000000003	0	0
39.580500000000001	93.709000000000003	0	0
39.219499999999996	94.109999999999999	0	0
39.580500000000001	94.109999999999999	0	0
39.219499999999996	94.510999999999996	0	0
39.580500000000001	94.510999999999996	0	0
39.219499999999996	94.912000000000006	0	0
39.580500000000001	94.912000000000006	0	0
39.219499999999996	95.313000000000002	0	0
39.580500000000001	95.313000000000002	0	0
39.219499999999996	95.713999999999999	0	0
39.580500000000001	95.713999999999999	0	0
39.219499999999996	96.115000000000009	0	0
39.580500000000001	96.115000000000009	0	0
39.219499999999996	96.516000000000005	0	0
39.580500000000001	96.516000000000005	0	0
39.219499999999996	96.917000000000002	0	0
39.580500000000001	96.917000000000002	0	0
39.219499999999996	97.318000000000012	0	0
39.580500000000001	97.318000000000012	0	0
39.219499999999996	97.718999999999994	0	0
39.580500000000001	97.718999999999994	0	0
39.219499999999996	98.120000000000005	0	0
39.580500000000001	98.120000000000005	0	0
39.219499999999996	98.521000000000001	0	0
39.580500000000001	98.521000000000001	0	0
39.219499999999996	98.921999999999997	0	0
39.580500000000001	98.921999999999997	0	0
39.219499999999996	99.323000000000008	0	0
39.580500000000001	99.323000000000008	0	0
39.219499999999996	99.724000000000004	0	0
39.580500000000001	99.724000000000004	0	0
39.219499999999996	100.125	0	0
39.580500000000001	100.125	0	0
39.219499999999996	100.52600000000001	0	0
39.580500000000001	100.52600000000001	0	0
39.219499999999996	100.92699999999999	0	0
39.580500000000001	100.92699999999999	0	0
39.219499999999996	101.328	0	0
39.580500000000001	101.328	0	0
39.219499999999996	101.72900000000001	0	0
39.580500000000001	101.72900000000001	0	0
39.219499999999996	102.13	0	0
39.580500000000001	102.13	0	0
39.219499999999996	102.53100000000001	0	0
39.580500000000001	102.53100000000001	0	0
39.219499999999996	102.932	0	0
39.580500000000001	102.932	0	0
39.219499999999996	103.333	0	0
39.580500000000001	103.333	0	0
39.219499999999996	103.73400000000001	0	0
39.580500000000001	103.73400000000001	0	0
39.219499999999996	104.13500000000001	0	0
39.580500000000001	104.13500000000001	0	0
39.219499999999996	104.536	0	0
39.580500000000001	104.536	0	0
39.219499999999996	104.93700000000001	0	0
39.580500000000001	104.93700000000001	0	0
39.219499999999996	105.33799999999999	0	0
39.580500000000001	105.33799999999999	0	0
39.219499999999996	105.739	0	0
39.580500000000001	105.739	0	0
39.219499999999996	106.14	0	0
39.580500000000001	106.14	0	0
39.219499999999996	106.541	0	0
39.580500000000001	106.541	0	0
39.219499999999996	106.94200000000001	0	0
39.580500000000001	106.94200000000001	0	0
39.219499999999996	107.343	0	0
39.580500000000001	107.343	0	0
39.219499999999996	107.744	0	0
39.580500000000001	107.744	0	0
39.219499999999996	108.14500000000001	0	0
39.580500000000001	108.14500000000001	0	0
39.219499999999996	108.54600000000001	0	0
39.580500000000001	108.54600000000001	0	0
39.219499999999996	108.947	0	0
39.580500000000001	108.947	0	0
39.219499999999996	109.34800000000001	0	0
39.580500000000001	109.34800000000001	0	0
39.219499999999996	109.749	0	0
39.580500000000001	109.749	0	0
39.219499999999996	110.15000000000001	0	0
39.580500000000001	110.15000000000001	0	0
39.219499999999996	110.551	0	0
39.580500000000001	110.551	0	0
39.219499999999996	110.952	0	0
39.580500000000001	110.952	0	0
39.219499999999996	111.35300000000001	0	0
39.580500000000001	111.35300000000001	0	0
39.219499999999996	111.754	0	0
39.580500000000001	111.754	0	0
39.219499999999996	112.155	0	0
39.580500000000001	112.155	0	0
39.219499999999996	112.55600000000001	0	0
39.580500000000001	112.55600000000001	0	0
39.219499999999996	112.95699999999999	0	0
39.580500000000001	112.95699999999999	0	0
39.219499999999996	113.358	0	0
39.580500000000001	113.358	0	0
39.219499999999996	113.759	0	0
39.580500000000001	113.759	0	0
39.219499999999996	114.16	0	0
39.580500000000001	114.16	0	0
39.219499999999996	114.56100000000001	0	0
39.580500000000001	114.56100000000001	0	0
39.219499999999996	114.962	0	0
39.580500000000001	114.962	0	0
39.219499999999996	115.363	0	0
39.580500000000001	115.363	0	0
39.219499999999996	115.76400000000001	0	0
39.580500000000001	115.76400000000001	0	0
39.219499999999996	116.16500000000001	0	0
39.580500000000001	116.16500000000001	0	0
39.219499999999996	116.566	0	0
39.580500000000001	116.566	0	0
39.219499999999996	116.967	0	0
39.580500000000001	116.967	0	0
39.219499999999996	117.36800000000001	0	0
39.580500000000001	117.36800000000001	0	0
39.219499999999996	117.76900000000001	0	0
39.580500000000001	117.76900000000001	0	0
39.219499999999996	118.17	0	0
39.580500000000001	118.17	0	0
39.219499999999996	118.571	0	0
39.580500000000001	118.571	0	0
39.219499999999996	118.97200000000001	0	0
39.580500000000001	118.97200000000001	0	0
39.219499999999996	119.373	0	0
39.580500000000001	119.373	0	0
39.219499999999996	119.774	0	0
39.580500000000001	119.774	0	0
39.219499999999996	120.175	0	0
39.580500000000001	120.175	0	0
39.219499999999996	120.57600000000001	0	0
39.580500000000001	120.57600000000001	0	0
39.219499999999996	120.977	0	0
39.580500000000001	120.977	0	0
39.219499999999996	121.378	0	0
39.580500000000001	121.378	0	0
39.219499999999996	121.77900000000001	0	0
39.580500000000001	121.77900000000001	0	0
39.219499999999996	122.18000000000001	0	0
39.580500000000001	122.18000000000001	0	0
39.219499999999996	122.581	0	0
39.580500000000001	122.581	0	0
39.219499999999996	122.982	0	0
39.580500000000001	122.982	0	0
39.219499999999996	123.38300000000001	0	0
39.580500000000001	123.38300000000001	0	0
39.219499999999996	123.78400000000001	0	0
39.580500000000001	123.78400000000001	0	0
39.219499999999996	124.185	0	0
39.580500000000001	124.185	0	0
39.219499999999996	124.586	0	0
39.580500000000001	124.586	0	0
39.219499999999996	124.98700000000001	0	0
39.580500000000001	124.98700000000001	0	0
39.219499999999996	125.38800000000001	0	0
39.580500000000001	125.38800000000001	0	0
39.219499999999996	125.789	0	0
39.580500000000001	125.789	0	0
39.219499999999996	126.19	0	0
39.580500000000001	126.19	0	0
39.219499999999996	126.59100000000001	0	0
39.580500000000001	126.59100000000001	0	0
39.219499999999996	126.992	0	0
39.580500000000001	126.992	0	0
39.219499999999996	127.393	0	0
39.580500000000001	127.393	0	0
39.219499999999996	127.79400000000001	0	0
39.580500000000001	127.79400000000001	0	0
39.219499999999996	128.19499999999999	0	0
39.580500000000001	128.19499999999999	0	0
39.219499999999996	128.596	0	0
39.580500000000001	128.596	0	0
39.219499999999996	128.99700000000001	0	0
39.580500000000001	128.99700000000001	0	0
39.219499999999996	129.39800000000002	0	0
39.580500000000001	129.39800000000002	0	0
39.219499999999996	129.79900000000001	0	0
39.580500000000001	129.79900000000001	0	0
39.219499999999996	130.19999999999999	0	0
39.580500000000001	130.19999999999999	0	0
39.219499999999996	130.601	0	0
39.580500000000001	130.601	0	0
39.219499999999996	131.00200000000001	0	0
39.580500000000001	131.00200000000001	0	0
39.219499999999996	131.40300000000002	0	0
39.580500000000001	131.40300000000002	0	0
39.219499999999996	131.804	0	0
39.580500000000001	131.804	0	0
39.219499999999996	132.20499999999998	0	0
39.580500000000001	132.20499999999998	0	0
39.219499999999996	132.60599999999999	0	0
39.580500000000001	132.60599999999999	0	0
39.219499999999996	133.00700000000001	0	0
39.580500000000001	133.00700000000001	0	0
39.219499999999996	133.40800000000002	0	0
39.580500000000001	133.40800000000002	0	0
39.219499999999996	133.80900000000003	0	0
39.580500000000001	133.80900000000003	0	0
39.219499999999996	134.21000000000001	0	0
39.580500000000001	134.21000000000001	0	0
39.219499999999996	134.61099999999999	0	0
39.580500000000001	134.61099999999999	0	0
39.219499999999996	135.012	0	0
39.580500000000001	135.012	0	0
39.219499999999996	135.41300000000001	0	0
39.580500000000001	135.41300000000001	0	0
39.219499999999996	135.81400000000002	0	0
39.580500000000001	135.81400000000002	0	0
39.219499999999996	136.215	0	0
39.580500000000001	136.215	0	0
39.219499999999996	136.61599999999999	0	0
39.580500000000001	136.61599999999999	0	0
39.219499999999996	137.017	0	0
39.580500000000001	137.017	0	0
39.219499999999996	137.41800000000001	0	0
39.580500000000001	137.41800000000001	0	0
39.219499999999996	137.81900000000002	0	0
39.580500000000001	137.81900000000002	0	0
39.219499999999996	138.22	0	0
39.580500000000001	138.22	0	0
39.219499999999996	138.62100000000001	0	0
39.580500000000001	138.62100000000001	0	0
39.219499999999996	139.02199999999999	0	0
39.580500000000001	139.02199999999999	0	0
39.219499999999996	139.423	0	0
39.580500000000001	139.423	0	0
39.219499999999996	139.82400000000001	0	0
39.580500000000001	139.82400000000001	0	0
39.219499999999996	140.22500000000002	0	0
39.580500000000001	140.22500000000002	0	0
39.219499999999996	140.626	0	0
39.580500000000001	140.626	0	0
39.219499999999996	141.02699999999999	0	0
39.580500000000001	141.02699999999999	0	0
39.219499999999996	141.428	0	0
39.580500000000001	141.428	0	0
39.219499999999996	141.82900000000001	0	0
39.580500000000001	141.82900000000001	0	0
39.219499999999996	142.23000000000002	0	0
39.580500000000001	142.23000000000002	0	0
39.219499999999996	142.631	0	0
39.580500000000001	142.631	0	0
39.219499999999996	143.03200000000001	0	0
39.580500000000001	143.03200000000001	0	0
39.219499999999996	143.43299999999999	0	0
39.580500000000001	143.43299999999999	0	0
39.219499999999996	143.834	0	0
39.580500000000001	143.834	0	0
39.219499999999996	144.23500000000001	0	0
39.580500000000001	144.23500000000001	0	0
39.219499999999996	144.63600000000002	0	0
39.580500000000001	144.63600000000002	0	0
39.219499999999996	145.03700000000001	0	0
39.580500000000001	145.03700000000001	0	0
39.219499999999996	145.43799999999999	0	0
39.580500000000001	145.43799999999999	0	0
39.219499999999996	145.839	0	0
39.580500000000001	145.839	0	0
39.219499999999996	146.24000000000001	0	0
39.580500000000001	146.24000000000001	0	0
39.219499999999996	146.64100000000002	0	0
39.580500000000001	146.64100000000002	0	0
39.219499999999996	147.042	0	0
39.580500000000001	147.042	0	0
39.219499999999996	147.44300000000001	0	0
39.580500000000001	147.44300000000001	0	0
39.219499999999996	147.84399999999999	0	0
39.580500000000001	147.84399999999999	0	0
39.219499999999996	148.245	0	0
39.580500000000001	148.245	0	0
39.219499999999996	148.64600000000002	0	0
39.580500000000001	148.64600000000002	0	0
39.219499999999996	149.04700000000003	0	0
39.580500000000001	149.04700000000003	0	0
39.219499999999996	149.44800000000001	0	0
39.580500000000001	149.44800000000001	0	0
39.219499999999996	149.84899999999999	0	0
39.580500000000001	149.84899999999999	0	0
39.219499999999996	150.25	0	0
39.580500000000001	150.25	0	0
39.219499999999996	150.65100000000001	0	0
39.580500000000001	150.65100000000001	0	0
39.219499999999996	151.05200000000002	0	0
39.580500000000001	151.05200000000002	0	0
39.219499999999996	151.453	0	0
39.580500000000001	151.453	0	0
39.219499999999996	151.85399999999998	0	0
39.580500000000001	151.85399999999998	0	0
39.219499999999996	152.255	0	0
39.580500000000001	152.255	0	0
39.219499999999996	152.65600000000001	0	0
39.580500000000001	152.65600000000001	0	0
39.219499999999996	153.05700000000002	0	0
39.580500000000001	153.05700000000002	0	0
39.219499999999996	153.45800000000003	0	0
39.580500000000001	153.45800000000003	0	0
39.219499999999996	153.85900000000001	0	0
39.580500000000001	153.85900000000001	0	0
39.219499999999996	154.25999999999999	0	0
39.580500000000001	154.25999999999999	0	0
39.219499999999996	154.661	0	0
39.580500000000001	154.661	0	0
39.219499999999996	155.06200000000001	0	0
39.580500000000001	155.06200000000001	0	0
39.219499999999996	155.46300000000002	0	0
39.580500000000001	155.46300000000002	0	0
39.219499999999996	155.864	0	0
39.580500000000001	155.864	0	0
39.219499999999996	156.26499999999999	0	0
39.580500000000001	156.26499999999999	0	0
39.219499999999996	156.666	0	0
39.580500000000001	156.666	0	0
39.219499999999996	157.06700000000001	0	0
39.580500000000001	157.06700000000001	0	0
39.219499999999996	157.46800000000002	0	0
39.580500000000001	157.46800000000002	0	0
39.219499999999996	157.869	0	0
39.580500000000001	157.869	0	0
39.219499999999996	158.27000000000001	0	0
39.580500000000001	158.27000000000001	0	0
39.219499999999996	158.67099999999999	0	0
39.580500000000001	158.67099999999999	0	0
39.219499999999996	159.072	0	0
39.580500000000001	159.072	0	0
39.219499999999996	159.47300000000001	0	0
39.580500000000001	159.47300000000001	0	0
39.219499999999996	159.87400000000002	0	0
39.580500000000001	159.87400000000002	0	0
39.219499999999996	160.27500000000001	0	0
39.580500000000001	160.27500000000001	0	0
39.219499999999996	160.67599999999999	0	0
39.580500000000001	160.67599999999999	0	0
39.219499999999996	161.077	0	0
39.580500000000001	161.077	0	0
39.219499999999996	161.47800000000001	0	0
39.580500000000001	161.47800000000001	0	0
39.219499999999996	161.87900000000002	0	0
39.580500000000001	161.87900000000002	0	0
39.219499999999996	162.28	0	0
39.580500000000001	162.28	0	0
39.219499999999996	162.68100000000001	0	0
39.580500000000001	162.68100000000001	0	0
39.219499999999996	163.08199999999999	0	0
39.580500000000001	163.08199999999999	0	0
39.219499999999996	163.483	0	0
39.580500000000001	163.483	0	0
39.219499999999996	163.88400000000001	0	0
39.580500000000001	163.88400000000001	0	0
39.219499999999996	164.28500000000003	0	0
39.580500000000001	164.28500000000003	0	0
39.219499999999996	164.68600000000001	0	0
39.580500000000001	164.68600000000001	0	0
39.219499999999996	165.08699999999999	0	0
39.580500000000001	165.08699999999999	0	0
39.219499999999996	165.488	0	0
39.580500000000001	165.488	0	0
39.219499999999996	165.88900000000001	0	0
39.580500000000001	165.88900000000001	0	0
39.219499999999996	166.29000000000002	0	0
39.580500000000001	166.29000000000002	0	0
39.219499999999996	166.691	0	0
39.580500000000001	166.691	0	0
39.219499999999996	167.09200000000001	0	0
39.580500000000001	167.09200000000001	0	0
39.219499999999996	167.49299999999999	0	0
39.580500000000001	167.49299999999999	0	0
39.219499999999996	167.89400000000001	0	0
39.580500000000001	167.89400000000001	0	0
39.219499999999996	168.29500000000002	0	0
39.580500000000001	168.29500000000002	0	0
39.219499999999996	168.69600000000003	0	0
39.580500000000001	168.69600000000003	0	0
39.219499999999996	169.09700000000001	0	0
39.580500000000001	169.09700000000001	0	0
39.219499999999996	169.49799999999999	0	0
39.580500000000001	169.49799999999999	0	0
39.219499999999996	169.899	0	0
39.580500000000001	169.899	0	0
39.219499999999996	170.30000000000001	0	0