[Format]      =  4.0
[Frequency]   =  380000
[Precision]   =  1e-008
[MinAngle]    =  30
[DoSmartMesh] =  1
[Depth]       =  1
[LengthUnits] =  millimeters
[ProblemType] =  axisymmetric
[Coordinates] =  cartesian
[ACSolver]    =  0
[PrevType]    =  0
[PrevSoln]    =  ""
[Comment]     =  "Add comments here."
[PointProps]   = 0
[BdryProps]   = 1
  <BeginBdry>
    <BdryName> = "A=0"
    <BdryType> = 0
    <A_0> = 0
    <A_1> = 0
    <A_2> = 0
    <Phi> = 0
    <c0> = 0
    <c0i> = 0
    <c1> = 0
    <c1i> = 0
    <Mu_ssd> = 0
    <Sigma_ssd> = 0
    <innerangle> = 0
    <outerangle> = 0
  <EndBdry>
[BlockProps]  = 10
  <BeginBlock>
    <BlockName> = "Air"
    <Mu_x> = 1
    <Mu_y> = 1
    <H_c> = 0
    <H_cAngle> = 0
    <J_re> = 0
    <J_im> = 0
    <Sigma> = 0
    <d_lam> = 0
    <Phi_h> = 0
    <Phi_hx> = 0
    <Phi_hy> = 0
    <LamType> = 0
    <LamFill> = 1
    <NStrands> = 0
    <WireD> = 0
    <BHPoints> = 0
  <EndBlock>
  <BeginBlock>
    <BlockName> = "Copper"
    <Mu_x> = 1
    <Mu_y> = 1
    <H_c> = 0
    <H_cAngle> = 0
    <J_re> = 0
    <J_im> = 0
    <Sigma> = 58
    <d_lam> = 0
    <Phi_h> = 0
    <Phi_hx> = 0
    <Phi_hy> = 0
    <LamType> = 0
    <LamFill> = 1
    <NStrands> = 0
    <WireD> = 0
    <BHPoints> = 0
  <EndBlock>
  <BeginBlock>
    <BlockName> = "Al"
    <Mu_x> = 1
    <Mu_y> = 1
    <H_c> = 0
    <H_cAngle> = 0
    <J_re> = 0
    <J_im> = 0
    <Sigma> = 34.799999999999997
    <d_lam> = 0
    <Phi_h> = 0
    <Phi_hx> = 0
    <Phi_hy> = 0
    <LamType> = 0
    <LamFill> = 1
    <NStrands> = 0
    <WireD> = 0
    <BHPoints> = 0
  <EndBlock>
  <BeginBlock>
    <BlockName> = "u1"
    <Mu_x> = 2.4089242666740582
    <Mu_y> = 2.4089242666740582
    <H_c> = 0
    <H_cAngle> = 0
    <J_re> = 0
    <J_im> = 0
    <Sigma> = 0
    <d_lam> = 0
    <Phi_h> = 0
    <Phi_hx> = 0
    <Phi_hy> = 0
    <LamType> = 0
    <LamFill> = 1
    <NStrands> = 0
    <WireD> = 0
    <BHPoints> = 0
  <EndBlock>
  <BeginBlock>
    <BlockName> = "u2"
    <Mu_x> = 0.14929929105743517
    <Mu_y> = 0.14929929105743517
    <H_c> = 0
    <H_cAngle> = 0
    <J_re> = 0
    <J_im> = 0
    <Sigma> = 0
    <d_lam> = 0
    <Phi_h> = 0
    <Phi_hx> = 0
    <Phi_hy> = 0
    <LamType> = 0
    <LamFill> = 1
    <NStrands> = 0
    <WireD> = 0
    <BHPoints> = 0
  <EndBlock>
  <BeginBlock>
    <BlockName> = "u3"
    <Mu_x> = 13.817592213008757
    <Mu_y> = 13.817592213008757
    <H_c> = 0
    <H_cAngle> = 0
    <J_re> = 0
    <J_im> = 0
    <Sigma> = 0
    <d_lam> = 0
    <Phi_h> = 0
    <Phi_hx> = 0
    <Phi_hy> = 0
    <LamType> = 0
    <LamFill> = 1
    <NStrands> = 0
    <WireD> = 0
    <BHPoints> = 0
  <EndBlock>
  <BeginBlock>
    <BlockName> = "u4"
    <Mu_x> = 0.058217224585269539
    <Mu_y> = 0.058217224585269539
    <H_c> = 0
    <H_cAngle> = 0
    <J_re> = 0
    <J_im> = 0
    <Sigma> = 0
    <d_lam> = 0
    <Phi_h> = 0
    <Phi_hx> = 0
    <Phi_hy> = 0
    <LamType> = 0
    <LamFill> = 1
    <NStrands> = 0
    <WireD> = 0
    <BHPoints> = 0
  <EndBlock>
  <BeginBlock>
    <BlockName> = "u5"
    <Mu_x> = 45.655954531895645
    <Mu_y> = 45.655954531895645
    <H_c> = 0
    <H_cAngle> = 0
    <J_re> = 0
    <J_im> = 0
    <Sigma> = 0
    <d_lam> = 0
    <Phi_h> = 0
    <Phi_hx> = 0
    <Phi_hy> = 0
    <LamType> = 0
    <LamFill> = 1
    <NStrands> = 0
    <WireD> = 0
    <BHPoints> = 0
  <EndBlock>
  <BeginBlock>
    <BlockName> = "u6"
    <Mu_x> = 0.033867295231772787
    <Mu_y> = 0.033867295231772787
    <H_c> = 0
    <H_cAngle> = 0
    <J_re> = 0
    <J_im> = 0
    <Sigma> = 0
    <d_lam> = 0
    <Phi_h> = 0
    <Phi_hx> = 0
    <Phi_hy> = 0
    <LamType> = 0
    <LamFill> = 1
    <NStrands> = 0
    <WireD> = 0
    <BHPoints> = 0
  <EndBlock>
  <BeginBlock>
    <BlockName> = "u7"
    <Mu_x> = 429.04642800993452
    <Mu_y> = 429.04642800993452
    <H_c> = 0
    <H_cAngle> = 0
    <J_re> = 0
    <J_im> = 0
    <Sigma> = 0
    <d_lam> = 0
    <Phi_h> = 0
    <Phi_hx> = 0
    <Phi_hy> = 0
    <LamType> = 0
    <LamFill> = 1
    <NStrands> = 0
    <WireD> = 0
    <BHPoints> = 0
  <EndBlock>
[CircuitProps]  = 2
  <BeginCircuit>
    <CircuitName> = "ipri"
    <TotalAmps_re> = 0
    <TotalAmps_im> = 0
    <CircuitType> = 1
  <EndCircuit>
  <BeginCircuit>
    <CircuitName> = "isec"
    <TotalAmps_re> = 1
    <TotalAmps_im> = 0
    <CircuitType> = 1
  <EndCircuit>
[NumPoints] = 2046
68.349999999999994	50	0	0
70.349999999999994	50	0	0
68.349999999999994	57.130000000000003	0	0
70.349999999999994	57.130000000000003	0	0
68.349999999999994	64.260000000000005	0	0
70.349999999999994	64.260000000000005	0	0
68.349999999999994	71.390000000000001	0	0
70.349999999999994	71.390000000000001	0	0
68.349999999999994	78.519999999999996	0	0
70.349999999999994	78.519999999999996	0	0
68.349999999999994	85.650000000000006	0	0
70.349999999999994	85.650000000000006	0	0
68.349999999999994	92.780000000000001	0	0
70.349999999999994	92.780000000000001	0	0
68.349999999999994	99.909999999999997	0	0
70.349999999999994	99.909999999999997	0	0
68.349999999999994	107.03999999999999	0	0
70.349999999999994	107.03999999999999	0	0
68.349999999999994	114.17	0	0
70.349999999999994	114.17	0	0
68.349999999999994	121.3	0	0
70.349999999999994	121.3	0	0
68.349999999999994	128.43000000000001	0	0
70.349999999999994	128.43000000000001	0	0
68.349999999999994	135.56	0	0
70.349999999999994	135.56	0	0
68.349999999999994	142.69	0	0
70.349999999999994	142.69	0	0
68.349999999999994	149.81999999999999	0	0
70.349999999999994	149.81999999999999	0	0
68.349999999999994	156.94999999999999	0	0
70.349999999999994	156.94999999999999	0	0
68.349999999999994	164.07999999999998	0	0
70.349999999999994	164.07999999999998	0	0
68.349999999999994	171.20999999999998	0	0
70.349999999999994	171.20999999999998	0	0
44.369999999999997	50	0	0
44.630000000000003	50	0	0
44.369999999999997	50.299999999999997	0	0
44.630000000000003	50.299999999999997	0	0
44.369999999999997	50.600000000000001	0	0
44.630000000000003	50.600000000000001	0	0
44.369999999999997	50.899999999999999	0	0
44.630000000000003	50.899999999999999	0	0
44.369999999999997	51.200000000000003	0	0
44.630000000000003	51.200000000000003	0	0
44.369999999999997	51.5	0	0
44.630000000000003	51.5	0	0
44.369999999999997	51.799999999999997	0	0
44.630000000000003	51.799999999999997	0	0
44.369999999999997	52.100000000000001	0	0
44.630000000000003	52.100000000000001	0	0
44.369999999999997	52.399999999999999	0	0
44.630000000000003	52.399999999999999	0	0
44.369999999999997	52.700000000000003	0	0
44.630000000000003	52.700000000000003	0	0
44.369999999999997	53	0	0
44.630000000000003	53	0	0
44.369999999999997	53.299999999999997	0	0
44.630000000000003	53.299999999999997	0	0
44.369999999999997	53.600000000000001	0	0
44.630000000000003	53.600000000000001	0	0
44.369999999999997	53.899999999999999	0	0
44.630000000000003	53.899999999999999	0	0
44.369999999999997	54.200000000000003	0	0
44.630000000000003	54.200000000000003	0	0
44.369999999999997	54.5	0	0
44.630000000000003	54.5	0	0
44.369999999999997	54.799999999999997	0	0
44.630000000000003	54.799999999999997	0	0
44.369999999999997	55.100000000000001	0	0
44.630000000000003	55.100000000000001	0	0
44.369999999999997	55.399999999999999	0	0
44.630000000000003	55.399999999999999	0	0
44.369999999999997	55.700000000000003	0	0
44.630000000000003	55.700000000000003	0	0
44.369999999999997	56	0	0
44.630000000000003	56	0	0
44.369999999999997	56.299999999999997	0	0
44.630000000000003	56.299999999999997	0	0
44.369999999999997	56.600000000000001	0	0
44.630000000000003	56.600000000000001	0	0
44.369999999999997	56.899999999999999	0	0
44.630000000000003	56.899999999999999	0	0
44.369999999999997	57.200000000000003	0	0
44.630000000000003	57.200000000000003	0	0
44.369999999999997	57.5	0	0
44.630000000000003	57.5	0	0
44.369999999999997	57.799999999999997	0	0
44.630000000000003	57.799999999999997	0	0
44.369999999999997	58.100000000000001	0	0
44.630000000000003	58.100000000000001	0	0
44.369999999999997	58.399999999999999	0	0
44.630000000000003	58.399999999999999	0	0
44.369999999999997	58.700000000000003	0	0
44.630000000000003	58.700000000000003	0	0
44.369999999999997	59	0	0
44.630000000000003	59	0	0
44.369999999999997	59.299999999999997	0	0
44.630000000000003	59.299999999999997	0	0
44.369999999999997	59.600000000000001	0	0
44.630000000000003	59.600000000000001	0	0
44.369999999999997	59.899999999999999	0	0
44.630000000000003	59.899999999999999	0	0
44.369999999999997	60.200000000000003	0	0
44.630000000000003	60.200000000000003	0	0
44.369999999999997	60.5	0	0
44.630000000000003	60.5	0	0
44.369999999999997	60.799999999999997	0	0
44.630000000000003	60.799999999999997	0	0
44.369999999999997	61.100000000000001	0	0
44.630000000000003	61.100000000000001	0	0
44.369999999999997	61.399999999999999	0	0
44.630000000000003	61.399999999999999	0	0
44.369999999999997	61.700000000000003	0	0
44.630000000000003	61.700000000000003	0	0
44.369999999999997	62	0	0
44.630000000000003	62	0	0
44.369999999999997	62.299999999999997	0	0
44.630000000000003	62.299999999999997	0	0
44.369999999999997	62.600000000000001	0	0
44.630000000000003	62.600000000000001	0	0
44.369999999999997	62.899999999999999	0	0
44.630000000000003	62.899999999999999	0	0
44.369999999999997	63.200000000000003	0	0
44.630000000000003	63.200000000000003	0	0
44.369999999999997	63.5	0	0
44.630000000000003	63.5	0	0
44.369999999999997	63.799999999999997	0	0
44.630000000000003	63.799999999999997	0	0
44.369999999999997	64.099999999999994	0	0
44.630000000000003	64.099999999999994	0	0
44.369999999999997	64.400000000000006	0	0
44.630000000000003	64.400000000000006	0	0
44.369999999999997	64.700000000000003	0	0
44.630000000000003	64.700000000000003	0	0
44.369999999999997	65	0	0
44.630000000000003	65	0	0
44.369999999999997	65.299999999999997	0	0
44.630000000000003	65.299999999999997	0	0
44.369999999999997	65.599999999999994	0	0
44.630000000000003	65.599999999999994	0	0
44.369999999999997	65.900000000000006	0	0
44.630000000000003	65.900000000000006	0	0
44.369999999999997	66.200000000000003	0	0
44.630000000000003	66.200000000000003	0	0
44.369999999999997	66.5	0	0
44.630000000000003	66.5	0	0
44.369999999999997	66.799999999999997	0	0
44.630000000000003	66.799999999999997	0	0
44.369999999999997	67.099999999999994	0	0
44.630000000000003	67.099999999999994	0	0
44.369999999999997	67.400000000000006	0	0
44.630000000000003	67.400000000000006	0	0
44.369999999999997	67.700000000000003	0	0
44.630000000000003	67.700000000000003	0	0
44.369999999999997	68	0	0
44.630000000000003	68	0	0
44.369999999999997	68.299999999999997	0	0
44.630000000000003	68.299999999999997	0	0
44.369999999999997	68.599999999999994	0	0
44.630000000000003	68.599999999999994	0	0
44.369999999999997	68.900000000000006	0	0
44.630000000000003	68.900000000000006	0	0
44.369999999999997	69.200000000000003	0	0
44.630000000000003	69.200000000000003	0	0
44.369999999999997	69.5	0	0
44.630000000000003	69.5	0	0
44.369999999999997	69.799999999999997	0	0
44.630000000000003	69.799999999999997	0	0
44.369999999999997	70.099999999999994	0	0
44.630000000000003	70.099999999999994	0	0
44.369999999999997	70.400000000000006	0	0
44.630000000000003	70.400000000000006	0	0
44.369999999999997	70.700000000000003	0	0
44.630000000000003	70.700000000000003	0	0
44.369999999999997	71	0	0
44.630000000000003	71	0	0
44.369999999999997	71.299999999999997	0	0
44.630000000000003	71.299999999999997	0	0
44.369999999999997	71.599999999999994	0	0
44.630000000000003	71.599999999999994	0	0
44.369999999999997	71.900000000000006	0	0
44.630000000000003	71.900000000000006	0	0
44.369999999999997	72.200000000000003	0	0
44.630000000000003	72.200000000000003	0	0
44.369999999999997	72.5	0	0
44.630000000000003	72.5	0	0
44.369999999999997	72.799999999999997	0	0
44.630000000000003	72.799999999999997	0	0
44.369999999999997	73.099999999999994	0	0
44.630000000000003	73.099999999999994	0	0
44.369999999999997	73.400000000000006	0	0
44.630000000000003	73.400000000000006	0	0
44.369999999999997	73.700000000000003	0	0
44.630000000000003	73.700000000000003	0	0
44.369999999999997	74	0	0
44.630000000000003	74	0	0
44.369999999999997	74.299999999999997	0	0
44.630000000000003	74.299999999999997	0	0
44.369999999999997	74.599999999999994	0	0
44.630000000000003	74.599999999999994	0	0
44.369999999999997	74.900000000000006	0	0
44.630000000000003	74.900000000000006	0	0
44.369999999999997	75.200000000000003	0	0
44.630000000000003	75.200000000000003	0	0
44.369999999999997	75.5	0	0
44.630000000000003	75.5	0	0
44.369999999999997	75.799999999999997	0	0
44.630000000000003	75.799999999999997	0	0
44.369999999999997	76.099999999999994	0	0
44.630000000000003	76.099999999999994	0	0
44.369999999999997	76.400000000000006	0	0
44.630000000000003	76.400000000000006	0	0
44.369999999999997	76.700000000000003	0	0
44.630000000000003	76.700000000000003	0	0
44.369999999999997	77	0	0
44.630000000000003	77	0	0
44.369999999999997	77.299999999999997	0	0
44.630000000000003	77.299999999999997	0	0
44.369999999999997	77.599999999999994	0	0
44.630000000000003	77.599999999999994	0	0
44.369999999999997	77.900000000000006	0	0
44.630000000000003	77.900000000000006	0	0
44.369999999999997	78.200000000000003	0	0
44.630000000000003	78.200000000000003	0	0
44.369999999999997	78.5	0	0
44.630000000000003	78.5	0	0
44.369999999999997	78.799999999999997	0	0
44.630000000000003	78.799999999999997	0	0
44.369999999999997	79.099999999999994	0	0
44.630000000000003	79.099999999999994	0	0
44.369999999999997	79.400000000000006	0	0
44.630000000000003	79.400000000000006	0	0
44.369999999999997	79.700000000000003	0	0
44.630000000000003	79.700000000000003	0	0
44.369999999999997	80	0	0
44.630000000000003	80	0	0
44.369999999999997	80.299999999999997	0	0
44.630000000000003	80.299999999999997	0	0
44.369999999999997	80.599999999999994	0	0
44.630000000000003	80.599999999999994	0	0
44.369999999999997	80.900000000000006	0	0
44.630000000000003	80.900000000000006	0	0
44.369999999999997	81.200000000000003	0	0
44.630000000000003	81.200000000000003	0	0
44.369999999999997	81.5	0	0
44.630000000000003	81.5	0	0
44.369999999999997	81.799999999999997	0	0
44.630000000000003	81.799999999999997	0	0
44.369999999999997	82.099999999999994	0	0
44.630000000000003	82.099999999999994	0	0
44.369999999999997	82.400000000000006	0	0
44.630000000000003	82.400000000000006	0	0
44.369999999999997	82.699999999999989	0	0
44.630000000000003	82.699999999999989	0	0
44.369999999999997	83	0	0
44.630000000000003	83	0	0
44.369999999999997	83.299999999999997	0	0
44.630000000000003	83.299999999999997	0	0
44.369999999999997	83.599999999999994	0	0
44.630000000000003	83.599999999999994	0	0
44.369999999999997	83.900000000000006	0	0
44.630000000000003	83.900000000000006	0	0
44.369999999999997	84.199999999999989	0	0
44.630000000000003	84.199999999999989	0	0
44.369999999999997	84.5	0	0
44.630000000000003	84.5	0	0
44.369999999999997	84.799999999999997	0	0
44.630000000000003	84.799999999999997	0	0
44.369999999999997	85.099999999999994	0	0
44.630000000000003	85.099999999999994	0	0
44.369999999999997	85.400000000000006	0	0
44.630000000000003	85.400000000000006	0	0
44.369999999999997	85.699999999999989	0	0
44.630000000000003	85.699999999999989	0	0
44.369999999999997	86	0	0
44.630000000000003	86	0	0
44.369999999999997	86.299999999999997	0	0
44.630000000000003	86.299999999999997	0	0
44.369999999999997	86.599999999999994	0	0
44.630000000000003	86.599999999999994	0	0
44.369999999999997	86.900000000000006	0	0
44.630000000000003	86.900000000000006	0	0
44.369999999999997	87.199999999999989	0	0
44.630000000000003	87.199999999999989	0	0
44.369999999999997	87.5	0	0
44.630000000000003	87.5	0	0
44.369999999999997	87.799999999999997	0	0
44.630000000000003	87.799999999999997	0	0
44.369999999999997	88.099999999999994	0	0
44.630000000000003	88.099999999999994	0	0
44.369999999999997	88.400000000000006	0	0
44.630000000000003	88.400000000000006	0	0
44.369999999999997	88.699999999999989	0	0
44.630000000000003	88.699999999999989	0	0
44.369999999999997	89	0	0
44.630000000000003	89	0	0
44.369999999999997	89.299999999999997	0	0
44.630000000000003	89.299999999999997	0	0
44.369999999999997	89.599999999999994	0	0
44.630000000000003	89.599999999999994	0	0
44.369999999999997	89.900000000000006	0	0
44.630000000000003	89.900000000000006	0	0
44.369999999999997	90.199999999999989	0	0
44.630000000000003	90.199999999999989	0	0
44.369999999999997	90.5	0	0
44.630000000000003	90.5	0	0
44.369999999999997	90.799999999999997	0	0
44.630000000000003	90.799999999999997	0	0
44.369999999999997	91.099999999999994	0	0
44.630000000000003	91.099999999999994	0	0
44.369999999999997	91.400000000000006	0	0
44.630000000000003	91.400000000000006	0	0
44.369999999999997	91.699999999999989	0	0
44.630000000000003	91.699999999999989	0	0
44.369999999999997	92	0	0
44.630000000000003	92	0	0
44.369999999999997	92.299999999999997	0	0
44.630000000000003	92.299999999999997	0	0
44.369999999999997	92.599999999999994	0	0
44.630000000000003	92.599999999999994	0	0
44.369999999999997	92.900000000000006	0	0
44.630000000000003	92.900000000000006	0	0
44.369999999999997	93.199999999999989	0	0
44.630000000000003	93.199999999999989	0	0
44.369999999999997	93.5	0	0
44.630000000000003	93.5	0	0
44.369999999999997	93.799999999999997	0	0
44.630000000000003	93.799999999999997	0	0
44.369999999999997	94.099999999999994	0	0
44.630000000000003	94.099999999999994	0	0
44.369999999999997	94.400000000000006	0	0
44.630000000000003	94.400000000000006	0	0
44.369999999999997	94.699999999999989	0	0
44.630000000000003	94.699999999999989	0	0
44.369999999999997	95	0	0
44.630000000000003	95	0	0
44.369999999999997	95.299999999999997	0	0
44.630000000000003	95.299999999999997	0	0
44.369999999999997	95.599999999999994	0	0
44.630000000000003	95.599999999999994	0	0
44.369999999999997	95.900000000000006	0	0
44.630000000000003	95.900000000000006	0	0
44.369999999999997	96.199999999999989	0	0
44.630000000000003	96.199999999999989	0	0
44.369999999999997	96.5	0	0
44.630000000000003	96.5	0	0
44.369999999999997	96.799999999999997	0	0
44.630000000000003	96.799999999999997	0	0
44.369999999999997	97.099999999999994	0	0
44.630000000000003	97.099999999999994	0	0
44.369999999999997	97.400000000000006	0	0
44.630000000000003	97.400000000000006	0	0
44.369999999999997	97.699999999999989	0	0
44.630000000000003	97.699999999999989	0	0
44.369999999999997	98	0	0
44.630000000000003	98	0	0
44.369999999999997	98.299999999999997	0	0
44.630000000000003	98.299999999999997	0	0
44.369999999999997	98.599999999999994	0	0
44.630000000000003	98.599999999999994	0	0
44.369999999999997	98.900000000000006	0	0
44.630000000000003	98.900000000000006	0	0
44.369999999999997	99.199999999999989	0	0
44.630000000000003	99.199999999999989	0	0
44.369999999999997	99.5	0	0
44.630000000000003	99.5	0	0
44.369999999999997	99.799999999999997	0	0
44.630000000000003	99.799999999999997	0	0
44.369999999999997	100.09999999999999	0	0
44.630000000000003	100.09999999999999	0	0
44.369999999999997	100.40000000000001	0	0
44.630000000000003	100.40000000000001	0	0
44.369999999999997	100.69999999999999	0	0
44.630000000000003	100.69999999999999	0	0
44.369999999999997	101	0	0
44.630000000000003	101	0	0
44.369999999999997	101.3	0	0
44.630000000000003	101.3	0	0
44.369999999999997	101.59999999999999	0	0
44.630000000000003	101.59999999999999	0	0
44.369999999999997	101.90000000000001	0	0
44.630000000000003	101.90000000000001	0	0
44.369999999999997	102.19999999999999	0	0
44.630000000000003	102.19999999999999	0	0
44.369999999999997	102.5	0	0
44.630000000000003	102.5	0	0
44.369999999999997	102.8	0	0
44.630000000000003	102.8	0	0
44.369999999999997	103.09999999999999	0	0
44.630000000000003	103.09999999999999	0	0
44.369999999999997	103.40000000000001	0	0
44.630000000000003	103.40000000000001	0	0
44.369999999999997	103.69999999999999	0	0
44.630000000000003	103.69999999999999	0	0
44.369999999999997	104	0	0
44.630000000000003	104	0	0
44.369999999999997	104.3	0	0
44.630000000000003	104.3	0	0
44.369999999999997	104.59999999999999	0	0
44.630000000000003	104.59999999999999	0	0
44.369999999999997	104.90000000000001	0	0
44.630000000000003	104.90000000000001	0	0
44.369999999999997	105.19999999999999	0	0
44.630000000000003	105.19999999999999	0	0
44.369999999999997	105.5	0	0
44.630000000000003	105.5	0	0
44.369999999999997	105.8	0	0
44.630000000000003	105.8	0	0
44.369999999999997	106.09999999999999	0	0
44.630000000000003	106.09999999999999	0	0
44.369999999999997	106.40000000000001	0	0
44.630000000000003	106.40000000000001	0	0
44.369999999999997	106.69999999999999	0	0
44.630000000000003	106.69999999999999	0	0
44.369999999999997	107	0	0
44.630000000000003	107	0	0
44.369999999999997	107.3	0	0
44.630000000000003	107.3	0	0
44.369999999999997	107.59999999999999	0	0
44.630000000000003	107.59999999999999	0	0
44.369999999999997	107.90000000000001	0	0
44.630000000000003	107.90000000000001	0	0
44.369999999999997	108.19999999999999	0	0
44.630000000000003	108.19999999999999	0	0
44.369999999999997	108.5	0	0
44.630000000000003	108.5	0	0
44.369999999999997	108.8	0	0
44.630000000000003	108.8	0	0
44.369999999999997	109.09999999999999	0	0
44.630000000000003	109.09999999999999	0	0
44.369999999999997	109.40000000000001	0	0
44.630000000000003	109.40000000000001	0	0
44.369999999999997	109.69999999999999	0	0
44.630000000000003	109.69999999999999	0	0
44.369999999999997	110	0	0
44.630000000000003	110	0	0
44.369999999999997	110.3	0	0
44.630000000000003	110.3	0	0
44.369999999999997	110.59999999999999	0	0
44.630000000000003	110.59999999999999	0	0
44.369999999999997	110.90000000000001	0	0
44.630000000000003	110.90000000000001	0	0
44.369999999999997	111.19999999999999	0	0
44.630000000000003	111.19999999999999	0	0
44.369999999999997	111.5	0	0
44.630000000000003	111.5	0	0
44.369999999999997	111.8	0	0
44.630000000000003	111.8	0	0
44.369999999999997	112.09999999999999	0	0
44.630000000000003	112.09999999999999	0	0
44.369999999999997	112.40000000000001	0	0
44.630000000000003	112.40000000000001	0	0
44.369999999999997	112.69999999999999	0	0
44.630000000000003	112.69999999999999	0	0
44.369999999999997	113	0	0
44.630000000000003	113	0	0
44.369999999999997	113.3	0	0
44.630000000000003	113.3	0	0
44.369999999999997	113.59999999999999	0	0
44.630000000000003	113.59999999999999	0	0
44.369999999999997	113.90000000000001	0	0
44.630000000000003	113.90000000000001	0	0
44.369999999999997	114.2	0	0
44.630000000000003	114.2	0	0
44.369999999999997	114.5	0	0
44.630000000000003	114.5	0	0
44.369999999999997	114.8	0	0
44.630000000000003	114.8	0	0
44.369999999999997	115.09999999999999	0	0
44.630000000000003	115.09999999999999	0	0
44.369999999999997	115.39999999999999	0	0
44.630000000000003	115.39999999999999	0	0
44.369999999999997	115.7	0	0
44.630000000000003	115.7	0	0
44.369999999999997	116	0	0
44.630000000000003	116	0	0
44.369999999999997	116.3	0	0
44.630000000000003	116.3	0	0
44.369999999999997	116.59999999999999	0	0
44.630000000000003	116.59999999999999	0	0
44.369999999999997	116.89999999999999	0	0
44.630000000000003	116.89999999999999	0	0
44.369999999999997	117.2	0	0
44.630000000000003	117.2	0	0
44.369999999999997	117.5	0	0
44.630000000000003	117.5	0	0
44.369999999999997	117.8	0	0
44.630000000000003	117.8	0	0
44.369999999999997	118.09999999999999	0	0
44.630000000000003	118.09999999999999	0	0
44.369999999999997	118.39999999999999	0	0
44.630000000000003	118.39999999999999	0	0
44.369999999999997	118.7	0	0
44.630000000000003	118.7	0	0
44.369999999999997	119	0	0
44.630000000000003	119	0	0
44.369999999999997	119.3	0	0
44.630000000000003	119.3	0	0
44.369999999999997	119.59999999999999	0	0
44.630000000000003	119.59999999999999	0	0
44.369999999999997	119.89999999999999	0	0
44.630000000000003	119.89999999999999	0	0
44.369999999999997	120.2	0	0
44.630000000000003	120.2	0	0
44.369999999999997	120.5	0	0
44.630000000000003	120.5	0	0
44.369999999999997	120.8	0	0
44.630000000000003	120.8	0	0
44.369999999999997	121.09999999999999	0	0
44.630000000000003	121.09999999999999	0	0
44.369999999999997	121.39999999999999	0	0
44.630000000000003	121.39999999999999	0	0
44.369999999999997	121.7	0	0
44.630000000000003	121.7	0	0
44.369999999999997	122	0	0
44.630000000000003	122	0	0
44.369999999999997	122.3	0	0
44.630000000000003	122.3	0	0
44.369999999999997	122.59999999999999	0	0
44.630000000000003	122.59999999999999	0	0
44.369999999999997	122.89999999999999	0	0
44.630000000000003	122.89999999999999	0	0
44.369999999999997	123.2	0	0
44.630000000000003	123.2	0	0
44.369999999999997	123.5	0	0
44.630000000000003	123.5	0	0
44.369999999999997	123.8	0	0
44.630000000000003	123.8	0	0
44.369999999999997	124.09999999999999	0	0
44.630000000000003	124.09999999999999	0	0
44.369999999999997	124.39999999999999	0	0
44.630000000000003	124.39999999999999	0	0
44.369999999999997	124.7	0	0
44.630000000000003	124.7	0	0
44.369999999999997	125	0	0
44.630000000000003	125	0	0
44.369999999999997	125.3	0	0
44.630000000000003	125.3	0	0
44.369999999999997	125.59999999999999	0	0
44.630000000000003	125.59999999999999	0	0
44.369999999999997	125.89999999999999	0	0
44.630000000000003	125.89999999999999	0	0
44.369999999999997	126.2	0	0
44.630000000000003	126.2	0	0
44.369999999999997	126.5	0	0
44.630000000000003	126.5	0	0
44.369999999999997	126.8	0	0
44.630000000000003	126.8	0	0
44.369999999999997	127.09999999999999	0	0
44.630000000000003	127.09999999999999	0	0
44.369999999999997	127.39999999999999	0	0
44.630000000000003	127.39999999999999	0	0
44.369999999999997	127.7	0	0
44.630000000000003	127.7	0	0
44.369999999999997	128	0	0
44.630000000000003	128	0	0
44.369999999999997	128.30000000000001	0	0
44.630000000000003	128.30000000000001	0	0
44.369999999999997	128.59999999999999	0	0
44.630000000000003	128.59999999999999	0	0
44.369999999999997	128.89999999999998	0	0
44.630000000000003	128.89999999999998	0	0
44.369999999999997	129.19999999999999	0	0
44.630000000000003	129.19999999999999	0	0
44.369999999999997	129.5	0	0
44.630000000000003	129.5	0	0
44.369999999999997	129.80000000000001	0	0
44.630000000000003	129.80000000000001	0	0
44.369999999999997	130.09999999999999	0	0
44.630000000000003	130.09999999999999	0	0
44.369999999999997	130.39999999999998	0	0
44.630000000000003	130.39999999999998	0	0
44.369999999999997	130.69999999999999	0	0
44.630000000000003	130.69999999999999	0	0
44.369999999999997	131	0	0
44.630000000000003	131	0	0
44.369999999999997	131.30000000000001	0	0
44.630000000000003	131.30000000000001	0	0
44.369999999999997	131.59999999999999	0	0
44.630000000000003	131.59999999999999	0	0
44.369999999999997	131.89999999999998	0	0
44.630000000000003	131.89999999999998	0	0
44.369999999999997	132.19999999999999	0	0
44.630000000000003	132.19999999999999	0	0
44.369999999999997	132.5	0	0
44.630000000000003	132.5	0	0
44.369999999999997	132.80000000000001	0	0
44.630000000000003	132.80000000000001	0	0
44.369999999999997	133.09999999999999	0	0
44.630000000000003	133.09999999999999	0	0
44.369999999999997	133.39999999999998	0	0
44.630000000000003	133.39999999999998	0	0
44.369999999999997	133.69999999999999	0	0
44.630000000000003	133.69999999999999	0	0
44.369999999999997	134	0	0
44.630000000000003	134	0	0
44.369999999999997	134.30000000000001	0	0
44.630000000000003	134.30000000000001	0	0
44.369999999999997	134.59999999999999	0	0
44.630000000000003	134.59999999999999	0	0
44.369999999999997	134.89999999999998	0	0
44.630000000000003	134.89999999999998	0	0
44.369999999999997	135.19999999999999	0	0
44.630000000000003	135.19999999999999	0	0
44.369999999999997	135.5	0	0
44.630000000000003	135.5	0	0
44.369999999999997	135.80000000000001	0	0
44.630000000000003	135.80000000000001	0	0
44.369999999999997	136.09999999999999	0	0
44.630000000000003	136.09999999999999	0	0
44.369999999999997	136.39999999999998	0	0
44.630000000000003	136.39999999999998	0	0
44.369999999999997	136.69999999999999	0	0
44.630000000000003	136.69999999999999	0	0
44.369999999999997	137	0	0
44.630000000000003	137	0	0
44.369999999999997	137.30000000000001	0	0
44.630000000000003	137.30000000000001	0	0
44.369999999999997	137.59999999999999	0	0
44.630000000000003	137.59999999999999	0	0
44.369999999999997	137.89999999999998	0	0
44.630000000000003	137.89999999999998	0	0
44.369999999999997	138.19999999999999	0	0
44.630000000000003	138.19999999999999	0	0
44.369999999999997	138.5	0	0
44.630000000000003	138.5	0	0
44.369999999999997	138.80000000000001	0	0
44.630000000000003	138.80000000000001	0	0
44.369999999999997	139.09999999999999	0	0
44.630000000000003	139.09999999999999	0	0
44.369999999999997	139.39999999999998	0	0
44.630000000000003	139.39999999999998	0	0
44.369999999999997	139.69999999999999	0	0
44.630000000000003	139.69999999999999	0	0
44.369999999999997	140	0	0
44.630000000000003	140	0	0
44.369999999999997	140.30000000000001	0	0
44.630000000000003	140.30000000000001	0	0
44.369999999999997	140.59999999999999	0	0
44.630000000000003	140.59999999999999	0	0
44.369999999999997	140.89999999999998	0	0
44.630000000000003	140.89999999999998	0	0
44.369999999999997	141.19999999999999	0	0
44.630000000000003	141.19999999999999	0	0
44.369999999999997	141.5	0	0
44.630000000000003	141.5	0	0
44.369999999999997	141.80000000000001	0	0
44.630000000000003	141.80000000000001	0	0
44.369999999999997	142.09999999999999	0	0
44.630000000000003	142.09999999999999	0	0
44.369999999999997	142.39999999999998	0	0