Version 4
SHEET 1 1044 680
WIRE -352 96 -512 96
WIRE -176 96 -288 96
WIRE -32 96 -96 96
WIRE 160 96 48 96
WIRE 432 96 336 96
WIRE 592 96 512 96
WIRE 784 96 592 96
WIRE 928 96 784 96
WIRE 160 144 160 96
WIRE 336 144 336 96
WIRE 592 144 592 96
WIRE 784 144 784 96
WIRE 928 144 928 96
WIRE -512 160 -512 96
WIRE -512 272 -512 240
WIRE 160 272 160 224
WIRE 336 272 336 224
WIRE 592 272 592 208
WIRE 784 272 784 208
WIRE 928 272 928 224
FLAG 784 272 0
FLAG 160 272 0
FLAG -512 272 0
FLAG 928 272 0
FLAG 592 272 0
FLAG 336 272 0
SYMBOL ind2 176 240 R180
WINDOW 0 36 80 Left 2
WINDOW 3 36 40 Left 2
SYMATTR InstName L1
SYMATTR Value 32.1E-6
SYMATTR Type ind
SYMBOL ind2 352 240 R180
WINDOW 0 36 80 Left 2
WINDOW 3 36 40 Left 2
SYMATTR InstName L2
SYMATTR Value 22.15E-3
SYMATTR Type ind
SYMBOL res -80 80 R90
WINDOW 0 0 56 VBottom 2
WINDOW 3 32 56 VTop 2
SYMATTR InstName R1
SYMATTR Value .5
SYMBOL res 528 80 R90
WINDOW 0 0 56 VBottom 2
WINDOW 3 32 56 VTop 2
SYMATTR InstName R2
SYMATTR Value 123
SYMBOL cap -288 80 R90
WINDOW 0 0 32 VBottom 2
WINDOW 3 32 32 VTop 2
SYMATTR InstName C2
SYMATTR Value 9.9n
SYMBOL cap 768 144 R0
SYMATTR InstName C1
SYMATTR Value 5.4p
SYMBOL voltage -512 144 R0
SYMATTR InstName V1
SYMATTR Value AC 1
SYMBOL res 912 128 R0
SYMATTR InstName R3
SYMATTR Value 100Meg
SYMBOL ind -48 112 R270
WINDOW 0 32 56 VTop 2
WINDOW 3 5 56 VBottom 2
SYMATTR InstName L3
SYMATTR Value 1.7µ
SYMBOL cap 576 144 R0
SYMATTR InstName C3
SYMATTR Value 8.7p
TEXT 192 -48 Left 2 ;K1 L1 L2 0.426
TEXT -368 360 Left 2 !.ac oct 10k 150k 600k
TEXT -352 432 Left 2 !.step param Cspark list 1p 9p
TEXT 568 48 Left 2 ;Cself
TEXT 752 48 Left 2 ;Ctopload
TEXT -72 40 Left 2 ;Lead Inductance
