Version 4
SHEET 1 884 680
WIRE -352 96 -512 96
WIRE -176 96 -288 96
WIRE -32 96 -96 96
WIRE 160 96 48 96
WIRE 432 96 336 96
WIRE 608 96 512 96
WIRE 752 96 608 96
WIRE 160 144 160 96
WIRE 336 144 336 96
WIRE 608 144 608 96
WIRE 752 144 752 96
WIRE -512 160 -512 96
WIRE -512 272 -512 240
WIRE 160 272 160 224
WIRE 336 272 336 224
WIRE 608 272 608 208
WIRE 752 272 752 224
FLAG 608 272 0
FLAG 336 272 0
FLAG 160 272 0
FLAG -512 272 0
FLAG 752 272 0
SYMBOL ind2 176 240 R180
WINDOW 0 36 80 Left 2
WINDOW 3 36 40 Left 2
SYMATTR InstName L1
SYMATTR Value 30.5µ
SYMATTR Type ind
SYMBOL ind2 352 240 R180
WINDOW 0 36 80 Left 2
WINDOW 3 36 40 Left 2
SYMATTR InstName L2
SYMATTR Value 16E-3
SYMATTR Type ind
SYMBOL res -80 80 R90
WINDOW 0 0 56 VBottom 2
WINDOW 3 32 56 VTop 2
SYMATTR InstName R1
SYMATTR Value .5
SYMBOL res 528 80 R90
WINDOW 0 0 56 VBottom 2
WINDOW 3 32 56 VTop 2
SYMATTR InstName R2
SYMATTR Value 114
SYMBOL cap -288 80 R90
WINDOW 0 0 32 VBottom 2
WINDOW 3 32 32 VTop 2
SYMATTR InstName C2
SYMATTR Value 10n
SYMBOL cap 592 144 R0
SYMATTR InstName C1
SYMATTR Value 19.5p
SYMBOL voltage -512 144 R0
SYMATTR InstName V1
SYMATTR Value AC 1
SYMBOL res 736 128 R0
SYMATTR InstName R3
SYMATTR Value 10Meg
SYMBOL ind -48 112 R270
WINDOW 0 32 56 VTop 2
WINDOW 3 5 56 VBottom 2
SYMATTR InstName L3
SYMATTR Value 3.2µ
TEXT 192 -48 Left 2 !K1 L1 L2 0.48
TEXT -368 360 Left 2 !.ac oct 10k 150k 600k
TEXT -352 432 Left 2 !.step param Cspark list 1p 9p
